 ZONEBUDGET version 3.01                 
 Program to compute a flow budget for subregions of a model using
 budget data from MODFLOW, the USGS Modular Ground-Water Flow Model.
 
  The cell-by-cell budget file is:
 SVIHM.cbb                                                                       
  Single precision budget file
          2 layers       440 rows       210 columns
 
 SVIHM                                                                           
 
  The zone file is:
 SVIHM.zon                                                                       
 
 Zone Array for layer   1 will be read from the Zone File
 Zone Array for layer   1 will be read using format: (25I3)              
 -----------------------------------------------------------------------
 
 Zone Array for layer   2 will be read from the Zone File
 Zone Array for layer   2 will be read using format: (25I3)              
 -----------------------------------------------------------------------
 1  zones.
    1
 
   1 Composite Zones:
 Composite Zone A         :   1   1
1
 SVIHM                                                                           
 
     Flow Budget for Zone  1 at Time Step  31 of Stress Period   1
     -------------------------------------------------------------
 
                       Budget Term     Flow (L**3/T)
                       -----------------------------

             IN:
             ---
                           STORAGE =    69311.    
                     CONSTANT HEAD =    0.0000    
                             WELLS =    49214.    
                            DRAINS =    0.0000    
                          RECHARGE =    8264.5    
                       ET SEGMENTS =    0.0000    
                    STREAM LEAKAGE =   0.40880E+06
 
                          Total IN =   0.53559E+06
 
             OUT:
             ----
                           STORAGE =    15715.    
                     CONSTANT HEAD =    0.0000    
                             WELLS =    19818.    
                            DRAINS =    4664.1    
                          RECHARGE =    0.0000    
                       ET SEGMENTS =    2142.4    
                    STREAM LEAKAGE =   0.49346E+06
 
                         Total OUT =   0.53580E+06
 
                          IN - OUT =   -212.29    
 
               Percent Discrepancy =               -0.04
1
 SVIHM                                                                           
 
     Flow Budget for Composite Zone A          at Time Step  31 of Stress Period   1
     -------------------------------------------------------------------------------
 
     Composite Zone A          consists of the following numeric zones:
        1   1
 
                       Budget Term     Flow (L**3/T)
                       -----------------------------

             IN:
             ---
                           STORAGE =   0.13862E+06
                     CONSTANT HEAD =    0.0000    
                             WELLS =    98428.    
                            DRAINS =    0.0000    
                          RECHARGE =    16529.    
                       ET SEGMENTS =    0.0000    
                    STREAM LEAKAGE =   0.81760E+06
 
                          Total IN =   0.10712E+07
 
             OUT:
             ----
                           STORAGE =    31429.    
                     CONSTANT HEAD =    0.0000    
                             WELLS =    39637.    
                            DRAINS =    9328.2    
                          RECHARGE =    0.0000    
                       ET SEGMENTS =    4284.8    
                    STREAM LEAKAGE =   0.98693E+06
 
                         Total OUT =   0.10716E+07
 
                          IN - OUT =   -424.57    
 
               Percent Discrepancy =               -0.04
1
 SVIHM                                                                           
 
     Flow Budget for Zone  1 at Time Step  30 of Stress Period   2
     -------------------------------------------------------------
 
                       Budget Term     Flow (L**3/T)
                       -----------------------------

             IN:
             ---
                           STORAGE =    20387.    
                     CONSTANT HEAD =    0.0000    
                             WELLS =    49214.    
                            DRAINS =    0.0000    
                          RECHARGE =    17087.    
                       ET SEGMENTS =    0.0000    
                    STREAM LEAKAGE =   0.60871E+06
 
                          Total IN =   0.69540E+06
 
             OUT:
             ----
                           STORAGE =    69691.    
                     CONSTANT HEAD =    0.0000    
                             WELLS =    0.0000    
                            DRAINS =    4366.4    
                          RECHARGE =    0.0000    
                       ET SEGMENTS =    2287.3    
                    STREAM LEAKAGE =   0.61865E+06
 
                         Total OUT =   0.69499E+06
 
                          IN - OUT =    410.20    
 
               Percent Discrepancy =                0.06
1
 SVIHM                                                                           
 
     Flow Budget for Composite Zone A          at Time Step  30 of Stress Period   2
     -------------------------------------------------------------------------------
 
     Composite Zone A          consists of the following numeric zones:
        1   1
 
                       Budget Term     Flow (L**3/T)
                       -----------------------------

             IN:
             ---
                           STORAGE =    40774.    
                     CONSTANT HEAD =    0.0000    
                             WELLS =    98428.    
                            DRAINS =    0.0000    
                          RECHARGE =    34173.    
                       ET SEGMENTS =    0.0000    
                    STREAM LEAKAGE =   0.12174E+07
 
                          Total IN =   0.13908E+07
 
             OUT:
             ----
                           STORAGE =   0.13938E+06
                     CONSTANT HEAD =    0.0000    
                             WELLS =    0.0000    
                            DRAINS =    8732.8    
                          RECHARGE =    0.0000    
                       ET SEGMENTS =    4574.6    
                    STREAM LEAKAGE =   0.12373E+07
 
                         Total OUT =   0.13900E+07
 
                          IN - OUT =    820.39    
 
               Percent Discrepancy =                0.06
1
 SVIHM                                                                           
 
     Flow Budget for Zone  1 at Time Step  31 of Stress Period   3
     -------------------------------------------------------------
 
                       Budget Term     Flow (L**3/T)
                       -----------------------------

             IN:
             ---
                           STORAGE =    17494.    
                     CONSTANT HEAD =    0.0000    
                             WELLS =    49214.    
                            DRAINS =    0.0000    
                          RECHARGE =    11020.    
                       ET SEGMENTS =    0.0000    
                    STREAM LEAKAGE =   0.65409E+06
 
                          Total IN =   0.73182E+06
 
             OUT:
             ----
                           STORAGE =    36464.    
                     CONSTANT HEAD =    0.0000    
                             WELLS =    0.0000    
                            DRAINS =    4313.6    
                          RECHARGE =    0.0000    
                       ET SEGMENTS =    2116.7    
                    STREAM LEAKAGE =   0.68859E+06
 
                         Total OUT =   0.73148E+06
 
                          IN - OUT =    333.58    
 
               Percent Discrepancy =                0.05
1
 SVIHM                                                                           
 
     Flow Budget for Composite Zone A          at Time Step  31 of Stress Period   3
     -------------------------------------------------------------------------------
 
     Composite Zone A          consists of the following numeric zones:
        1   1
 
                       Budget Term     Flow (L**3/T)
                       -----------------------------

             IN:
             ---
                           STORAGE =    34988.    
                     CONSTANT HEAD =    0.0000    
                             WELLS =    98428.    
                            DRAINS =    0.0000    
                          RECHARGE =    22040.    
                       ET SEGMENTS =    0.0000    
                    STREAM LEAKAGE =   0.13082E+07
 
                          Total IN =   0.14636E+07
 
             OUT:
             ----
                           STORAGE =    72929.    
                     CONSTANT HEAD =    0.0000    
                             WELLS =    0.0000    
                            DRAINS =    8627.2    
                          RECHARGE =    0.0000    
                       ET SEGMENTS =    4233.4    
                    STREAM LEAKAGE =   0.13772E+07
 
                         Total OUT =   0.14630E+07
 
                          IN - OUT =    667.15    
 
               Percent Discrepancy =                0.05
1
 SVIHM                                                                           
 
     Flow Budget for Zone  1 at Time Step  31 of Stress Period   4
     -------------------------------------------------------------
 
                       Budget Term     Flow (L**3/T)
                       -----------------------------

             IN:
             ---
                           STORAGE =    13113.    
                     CONSTANT HEAD =    0.0000    
                             WELLS =    49214.    
                            DRAINS =   0.17877    
                          RECHARGE =    13842.    
                       ET SEGMENTS =    0.0000    
                    STREAM LEAKAGE =   0.72847E+06
 
                          Total IN =   0.80464E+06
 
             OUT:
             ----
                           STORAGE =    56117.    
                     CONSTANT HEAD =    0.0000    
                             WELLS =    0.0000    
                            DRAINS =    3791.5    
                          RECHARGE =    0.0000    
                       ET SEGMENTS =    2717.4    
                    STREAM LEAKAGE =   0.74166E+06
 
                         Total OUT =   0.80429E+06
 
                          IN - OUT =    356.63    
 
               Percent Discrepancy =                0.04
1
 SVIHM                                                                           
 
     Flow Budget for Composite Zone A          at Time Step  31 of Stress Period   4
     -------------------------------------------------------------------------------
 
     Composite Zone A          consists of the following numeric zones:
        1   1
 
                       Budget Term     Flow (L**3/T)
                       -----------------------------

             IN:
             ---
                           STORAGE =    26225.    
                     CONSTANT HEAD =    0.0000    
                             WELLS =    98428.    
                            DRAINS =   0.35753    
                          RECHARGE =    27684.    
                       ET SEGMENTS =    0.0000    
                    STREAM LEAKAGE =   0.14569E+07
 
                          Total IN =   0.16093E+07
 
             OUT:
             ----
                           STORAGE =   0.11223E+06
                     CONSTANT HEAD =    0.0000    
                             WELLS =    0.0000    
                            DRAINS =    7583.0    
                          RECHARGE =    0.0000    
                       ET SEGMENTS =    5434.8    
                    STREAM LEAKAGE =   0.14833E+07
 
                         Total OUT =   0.16086E+07
 
                          IN - OUT =    713.26    
 
               Percent Discrepancy =                0.04
1
 SVIHM                                                                           
 
     Flow Budget for Zone  1 at Time Step  28 of Stress Period   5
     -------------------------------------------------------------
 
                       Budget Term     Flow (L**3/T)
                       -----------------------------

             IN:
             ---
                           STORAGE =    8825.5    
                     CONSTANT HEAD =    0.0000    
                             WELLS =    49214.    
                            DRAINS =    0.0000    
                          RECHARGE =    22006.    
                       ET SEGMENTS =    0.0000    
                    STREAM LEAKAGE =   0.85458E+06
 
                          Total IN =   0.93463E+06
 
             OUT:
             ----
                           STORAGE =    79887.    
                     CONSTANT HEAD =    0.0000    
                             WELLS =    0.0000    
                            DRAINS =    3111.9    
                          RECHARGE =    0.0000    
                       ET SEGMENTS =    3888.1    
                    STREAM LEAKAGE =   0.84745E+06
 
                         Total OUT =   0.93434E+06
 
                          IN - OUT =    287.35    
 
               Percent Discrepancy =                0.03
1
 SVIHM                                                                           
 
     Flow Budget for Composite Zone A          at Time Step  28 of Stress Period   5
     -------------------------------------------------------------------------------
 
     Composite Zone A          consists of the following numeric zones:
        1   1
 
                       Budget Term     Flow (L**3/T)
                       -----------------------------

             IN:
             ---
                           STORAGE =    17651.    
                     CONSTANT HEAD =    0.0000    
                             WELLS =    98428.    
                            DRAINS =    0.0000    
                          RECHARGE =    44012.    
                       ET SEGMENTS =    0.0000    
                    STREAM LEAKAGE =   0.17092E+07
 
                          Total IN =   0.18693E+07
 
             OUT:
             ----
                           STORAGE =   0.15977E+06
                     CONSTANT HEAD =    0.0000    
                             WELLS =    0.0000    
                            DRAINS =    6223.9    
                          RECHARGE =    0.0000    
                       ET SEGMENTS =    7776.3    
                    STREAM LEAKAGE =   0.16949E+07
 
                         Total OUT =   0.18687E+07
 
                          IN - OUT =    574.70    
 
               Percent Discrepancy =                0.03
1
 SVIHM                                                                           
 
     Flow Budget for Zone  1 at Time Step  31 of Stress Period   6
     -------------------------------------------------------------
 
                       Budget Term     Flow (L**3/T)
                       -----------------------------

             IN:
             ---
                           STORAGE =    4824.6    
                     CONSTANT HEAD =    0.0000    
                             WELLS =    49214.    
                            DRAINS =    0.0000    
                          RECHARGE =    83180.    
                       ET SEGMENTS =    0.0000    
                    STREAM LEAKAGE =   0.95418E+06
 
                          Total IN =   0.10914E+07
 
             OUT:
             ----
                           STORAGE =    73080.    
                     CONSTANT HEAD =    0.0000    
                             WELLS =    20736.    
                            DRAINS =    6801.7    
                          RECHARGE =    0.0000    
                       ET SEGMENTS =    10.791    
                    STREAM LEAKAGE =   0.99058E+06
 
                         Total OUT =   0.10912E+07
 
                          IN - OUT =    188.32    
 
               Percent Discrepancy =                0.02
1
 SVIHM                                                                           
 
     Flow Budget for Composite Zone A          at Time Step  31 of Stress Period   6
     -------------------------------------------------------------------------------
 
     Composite Zone A          consists of the following numeric zones:
        1   1
 
                       Budget Term     Flow (L**3/T)
                       -----------------------------

             IN:
             ---
                           STORAGE =    9649.2    
                     CONSTANT HEAD =    0.0000    
                             WELLS =    98428.    
                            DRAINS =    0.0000    
                          RECHARGE =   0.16636E+06
                       ET SEGMENTS =    0.0000    
                    STREAM LEAKAGE =   0.19084E+07
 
                          Total IN =   0.21828E+07
 
             OUT:
             ----
                           STORAGE =   0.14616E+06
                     CONSTANT HEAD =    0.0000    
                             WELLS =    41472.    
                            DRAINS =    13603.    
                          RECHARGE =    0.0000    
                       ET SEGMENTS =    21.582    
                    STREAM LEAKAGE =   0.19812E+07
 
                         Total OUT =   0.21824E+07
 
                          IN - OUT =    376.63    
 
               Percent Discrepancy =                0.02
1
 SVIHM                                                                           
 
     Flow Budget for Zone  1 at Time Step  30 of Stress Period   7
     -------------------------------------------------------------
 
                       Budget Term     Flow (L**3/T)
                       -----------------------------

             IN:
             ---
                           STORAGE =    40404.    
                     CONSTANT HEAD =    0.0000    
                             WELLS =   0.13390E+06
                            DRAINS =    0.0000    
                          RECHARGE =    15995.    
                       ET SEGMENTS =    0.0000    
                    STREAM LEAKAGE =   0.86530E+06
 
                          Total IN =   0.10556E+07
 
             OUT:
             ----
                           STORAGE =    30356.    
                     CONSTANT HEAD =    0.0000    
                             WELLS =   0.13332E+06
                            DRAINS =    7341.3    
                          RECHARGE =    0.0000    
                       ET SEGMENTS =    2.2840    
                    STREAM LEAKAGE =   0.88456E+06
 
                         Total OUT =   0.10556E+07
 
                          IN - OUT =    24.483    
 
               Percent Discrepancy =                0.00
1
 SVIHM                                                                           
 
     Flow Budget for Composite Zone A          at Time Step  30 of Stress Period   7
     -------------------------------------------------------------------------------
 
     Composite Zone A          consists of the following numeric zones:
        1   1
 
                       Budget Term     Flow (L**3/T)
                       -----------------------------

             IN:
             ---
                           STORAGE =    80808.    
                     CONSTANT HEAD =    0.0000    
                             WELLS =   0.26781E+06
                            DRAINS =    0.0000    
                          RECHARGE =    31989.    
                       ET SEGMENTS =    0.0000    
                    STREAM LEAKAGE =   0.17306E+07
 
                          Total IN =   0.21112E+07
 
             OUT:
             ----
                           STORAGE =    60713.    
                     CONSTANT HEAD =    0.0000    
                             WELLS =   0.26664E+06
                            DRAINS =    14683.    
                          RECHARGE =    0.0000    
                       ET SEGMENTS =    4.5681    
                    STREAM LEAKAGE =   0.17691E+07
 
                         Total OUT =   0.21112E+07
 
                          IN - OUT =    48.966    
 
               Percent Discrepancy =                0.00
1
 SVIHM                                                                           
 
     Flow Budget for Zone  1 at Time Step  31 of Stress Period   8
     -------------------------------------------------------------
 
                       Budget Term     Flow (L**3/T)
                       -----------------------------

             IN:
             ---
                           STORAGE =    26393.    
                     CONSTANT HEAD =    0.0000    
                             WELLS =   0.13390E+06
                            DRAINS =    0.0000    
                          RECHARGE =    12472.    
                       ET SEGMENTS =    0.0000    
                    STREAM LEAKAGE =   0.97096E+06
 
                          Total IN =   0.11437E+07
 
             OUT:
             ----
                           STORAGE =    25097.    
                     CONSTANT HEAD =    0.0000    
                             WELLS =   0.18060E+06
                            DRAINS =    7648.6    
                          RECHARGE =    0.0000    
                       ET SEGMENTS =    78.349    
                    STREAM LEAKAGE =   0.93024E+06
 
                         Total OUT =   0.11437E+07
 
                          IN - OUT =    66.624    
 
               Percent Discrepancy =                0.01
1
 SVIHM                                                                           
 
     Flow Budget for Composite Zone A          at Time Step  31 of Stress Period   8
     -------------------------------------------------------------------------------
 
     Composite Zone A          consists of the following numeric zones:
        1   1
 
                       Budget Term     Flow (L**3/T)
                       -----------------------------

             IN:
             ---
                           STORAGE =    52786.    
                     CONSTANT HEAD =    0.0000    
                             WELLS =   0.26781E+06
                            DRAINS =    0.0000    
                          RECHARGE =    24944.    
                       ET SEGMENTS =    0.0000    
                    STREAM LEAKAGE =   0.19419E+07
 
                          Total IN =   0.22875E+07
 
             OUT:
             ----
                           STORAGE =    50194.    
                     CONSTANT HEAD =    0.0000    
                             WELLS =   0.36120E+06
                            DRAINS =    15297.    
                          RECHARGE =    0.0000    
                       ET SEGMENTS =    156.70    
                    STREAM LEAKAGE =   0.18605E+07
 
                         Total OUT =   0.22873E+07
 
                          IN - OUT =    133.25    
 
               Percent Discrepancy =                0.01
1
 SVIHM                                                                           
 
     Flow Budget for Zone  1 at Time Step  30 of Stress Period   9
     -------------------------------------------------------------
 
                       Budget Term     Flow (L**3/T)
                       -----------------------------

             IN:
             ---
                           STORAGE =   0.11757E+06
                     CONSTANT HEAD =    0.0000    
                             WELLS =    84690.    
                            DRAINS =    0.0000    
                          RECHARGE =    38848.    
                       ET SEGMENTS =    0.0000    
                    STREAM LEAKAGE =   0.79453E+06
 
                          Total IN =   0.10356E+07
 
             OUT:
             ----
                           STORAGE =    9042.9    
                     CONSTANT HEAD =    0.0000    
                             WELLS =   0.28304E+06
                            DRAINS =    7604.2    
                          RECHARGE =    0.0000    
                       ET SEGMENTS =    275.73    
                    STREAM LEAKAGE =   0.73573E+06
 
                         Total OUT =   0.10357E+07
 
                          IN - OUT =   -46.943    
 
               Percent Discrepancy =                0.00
1
 SVIHM                                                                           
 
     Flow Budget for Composite Zone A          at Time Step  30 of Stress Period   9
     -------------------------------------------------------------------------------
 
     Composite Zone A          consists of the following numeric zones:
        1   1
 
                       Budget Term     Flow (L**3/T)
                       -----------------------------

             IN:
             ---
                           STORAGE =   0.23515E+06
                     CONSTANT HEAD =    0.0000    
                             WELLS =   0.16938E+06
                            DRAINS =    0.0000    
                          RECHARGE =    77697.    
                       ET SEGMENTS =    0.0000    
                    STREAM LEAKAGE =   0.15891E+07
 
                          Total IN =   0.20713E+07
 
             OUT:
             ----
                           STORAGE =    18086.    
                     CONSTANT HEAD =    0.0000    
                             WELLS =   0.56607E+06
                            DRAINS =    15208.    
                          RECHARGE =    0.0000    
                       ET SEGMENTS =    551.46    
                    STREAM LEAKAGE =   0.14715E+07
 
                         Total OUT =   0.20714E+07
 
                          IN - OUT =   -93.887    
 
               Percent Discrepancy =                0.00
1
 SVIHM                                                                           
 
     Flow Budget for Zone  1 at Time Step  31 of Stress Period  10
     -------------------------------------------------------------
 
                       Budget Term     Flow (L**3/T)
                       -----------------------------

             IN:
             ---
                           STORAGE =   0.34311E+06
                     CONSTANT HEAD =    0.0000    
                             WELLS =    84690.    
                            DRAINS =    0.0000    
                          RECHARGE =    71076.    
                       ET SEGMENTS =    0.0000    
                    STREAM LEAKAGE =   0.27156E+06
 
                          Total IN =   0.77043E+06
 
             OUT:
             ----
                           STORAGE =    6566.8    
                     CONSTANT HEAD =    0.0000    
                             WELLS =   0.43513E+06
                            DRAINS =    6436.8    
                          RECHARGE =    0.0000    
                       ET SEGMENTS =    368.43    
                    STREAM LEAKAGE =   0.32199E+06
 
                         Total OUT =   0.77049E+06
 
                          IN - OUT =   -52.627    
 
               Percent Discrepancy =               -0.01
1
 SVIHM                                                                           
 
     Flow Budget for Composite Zone A          at Time Step  31 of Stress Period  10
     -------------------------------------------------------------------------------
 
     Composite Zone A          consists of the following numeric zones:
        1   1
 
                       Budget Term     Flow (L**3/T)
                       -----------------------------

             IN:
             ---
                           STORAGE =   0.68621E+06
                     CONSTANT HEAD =    0.0000    
                             WELLS =   0.16938E+06
                            DRAINS =    0.0000    
                          RECHARGE =   0.14215E+06
                       ET SEGMENTS =    0.0000    
                    STREAM LEAKAGE =   0.54313E+06
 
                          Total IN =   0.15409E+07
 
             OUT:
             ----
                           STORAGE =    13134.    
                     CONSTANT HEAD =    0.0000    
                             WELLS =   0.87026E+06
                            DRAINS =    12874.    
                          RECHARGE =    0.0000    
                       ET SEGMENTS =    736.85    
                    STREAM LEAKAGE =   0.64397E+06
 
                         Total OUT =   0.15410E+07
 
                          IN - OUT =   -105.25    
 
               Percent Discrepancy =               -0.01
1
 SVIHM                                                                           
 
     Flow Budget for Zone  1 at Time Step  31 of Stress Period  11
     -------------------------------------------------------------
 
                       Budget Term     Flow (L**3/T)
                       -----------------------------

             IN:
             ---
                           STORAGE =   0.38662E+06
                     CONSTANT HEAD =    0.0000    
                             WELLS =    0.0000    
                            DRAINS =    0.0000    
                          RECHARGE =    42131.    
                       ET SEGMENTS =    0.0000    
                    STREAM LEAKAGE =   0.16370E+06
 
                          Total IN =   0.59245E+06
 
             OUT:
             ----
                           STORAGE =    387.02    
                     CONSTANT HEAD =    0.0000    
                             WELLS =   0.40248E+06
                            DRAINS =    933.02    